30
aligned
C	-0.538692	-3.686441	0.000000
C	0.901267	-3.597938	0.000000
C	1.553277	-2.396082	0.000000
C	0.798816	-1.187103	0.000000
C	-0.650457	-1.256841	0.000000
C	-1.283835	-2.528742	0.000000
C	1.416617	0.066880	0.000000
C	0.683112	1.259699	0.000000
C	-0.766160	1.189961	0.000000
C	-1.383962	-0.064022	0.000000
C	1.316491	2.531600	0.000000
C	0.571348	3.689299	0.000000
C	-0.868612	3.600796	0.000000
C	-1.520622	2.398940	0.000000
C	1.015798	5.063577	0.000000
C	-0.000000	5.951872	0.000000
S	-1.597050	5.212355	0.000000
C	-0.983143	-5.060719	0.000000
C	0.032655	-5.949014	0.000000
S	1.629705	-5.209497	0.000000
H	0.069316	7.030682	0.000000
H	2.060223	5.351931	0.000000
H	2.401669	2.579754	0.000000
H	2.502217	0.118610	0.000000
H	2.637441	-2.341890	0.000000
H	-0.036661	-7.027824	0.000000
H	-2.027567	-5.349073	0.000000
H	-2.369014	-2.576896	0.000000
H	-2.469562	-0.115752	0.000000
H	-2.604786	2.344748	0.000000
