18
aligned
C	-0.627415	1.264389	0.000000
C	0.791934	1.136926	0.000000
C	1.425102	-0.097563	0.000000
C	0.630291	-1.249439	0.000000
C	-0.789057	-1.121976	0.000000
C	-1.422225	0.112513	0.000000
S	1.564207	2.720029	0.000000
C	0.000000	3.509975	0.000000
C	-1.039894	2.644260	0.000000
C	1.042770	-2.629310	0.000000
S	-1.561330	-2.705079	0.000000
C	0.002877	-3.495025	0.000000
H	-0.038579	4.589992	0.000000
H	-2.076924	2.958438	0.000000
H	-2.504491	0.191594	0.000000
H	0.041456	-4.575042	0.000000
H	2.079801	-2.943488	0.000000
H	2.507368	-0.176644	0.000000
