36
aligned
C	1.153540	-3.604480	0.000000
C	2.388557	-2.868085	0.000000
C	2.401976	-1.513710	0.000000
C	1.181441	-0.755564	0.000000
C	-0.074651	-1.443602	0.000000
C	-0.085520	-2.904177	0.000000
C	-1.233432	-0.665583	0.000000
C	-1.204100	0.733113	0.000000
C	0.051991	1.421148	0.000000
C	1.210767	0.643128	0.000000
C	-2.424639	1.491250	0.000000
C	-2.411225	2.845625	0.000000
C	-1.176208	3.582020	0.000000
C	0.062852	2.881718	0.000000
C	-1.179483	4.992734	0.000000
C	-0.000000	5.708662	0.000000
C	1.224652	5.023578	0.000000
C	1.251231	3.641718	0.000000
C	-1.273901	-3.664182	0.000000
C	-1.247317	-5.046044	0.000000
C	-0.022663	-5.731125	0.000000
C	1.156816	-5.015192	0.000000
H	-3.342700	3.404149	0.000000
H	-3.366706	0.950713	0.000000
H	-2.207842	-1.140857	0.000000
H	-2.235826	-3.165612	0.000000
H	-2.179491	-5.601840	0.000000
H	-0.004810	-6.816165	0.000000
H	2.110803	-5.534587	0.000000
H	3.320026	-3.426619	0.000000
H	3.344049	-0.973188	0.000000
H	2.185173	1.118404	0.000000
H	2.213152	3.143145	0.000000
H	2.156825	5.579376	0.000000
H	-0.017841	6.793703	0.000000
H	-2.133466	5.512137	0.000000
