26
aligned
C	0.043042	-6.117264	-0.000000
C	-1.169363	-5.427831	0.000000
C	-1.186427	-4.038659	0.000000
C	0.019645	-3.312202	-0.000000
C	1.237666	-4.018560	-0.000000
C	1.243815	-5.407764	-0.000000
C	0.008817	-1.893039	-0.000000
C	0.002384	-0.677759	0.000000
C	-0.002384	0.677759	0.000000
C	-0.004503	1.893054	-0.000000
C	-0.003659	3.312258	-0.000000
C	1.209361	4.027169	-0.000000
C	1.205736	5.416381	-0.000000
C	0.000000	6.117415	-0.000000
C	-1.207524	5.419469	0.000000
C	-1.214813	4.030212	0.000000
H	-2.127771	-3.500697	0.000000
H	-2.106205	-5.975598	0.000000
H	0.052129	-7.202336	-0.000000
H	2.189677	-5.939799	-0.000000
H	2.169866	-3.464903	-0.000000
H	2.145433	3.480084	-0.000000
H	2.147831	5.955059	-0.000000
H	0.001452	7.202524	-0.000000
H	-2.148197	5.960630	0.000000
H	-2.152349	3.485639	0.000000
