36
aligned
C	0.139645	-5.725939	-0.000000
C	-1.099368	-5.059585	0.000000
C	-1.153311	-3.681581	0.000000
C	0.024118	-2.895535	0.000000
C	1.273619	-3.578479	-0.000000
C	1.304031	-4.992009	-0.000000
C	2.478461	-2.814356	-0.000000
C	2.457195	-1.454887	-0.000000
C	1.228670	-0.717380	-0.000000
C	0.010469	-1.442614	0.000000
C	-1.204187	-0.706745	0.000000
C	-1.220837	0.658860	0.000000
C	-0.024483	1.424125	0.000000
C	1.211038	0.728808	-0.000000
C	2.421216	1.496048	-0.000000
C	2.409331	2.855631	-0.000000
C	1.186217	3.590152	-0.000000
C	-0.046262	2.876947	0.000000
C	-1.242505	3.634053	0.000000
C	-1.222175	5.012962	0.000000
C	0.000223	5.709326	-0.000000
C	1.182157	5.004003	-0.000000
H	0.174132	-6.810619	-0.000000
H	-2.020930	-5.632963	0.000000
H	-2.125961	-3.205686	0.000000
H	-2.152151	-1.229443	0.000000
H	-2.181262	1.158291	0.000000
H	-2.203263	3.134585	0.000000
H	-2.157443	5.563701	0.000000
H	0.008254	6.794525	-0.000000
H	2.133796	5.527699	-0.000000
H	3.345623	3.406199	-0.000000
H	3.378830	0.992916	-0.000000
H	3.402257	-0.928557	-0.000000
H	3.427898	-3.341932	-0.000000
H	2.268155	-5.492348	-0.000000
