26
aligned
C	0.000000	3.518682	0.000000
C	1.208638	2.829234	0.000000
C	1.234578	1.427363	0.000000
C	0.000000	0.712608	0.000000
C	-1.234578	1.427363	0.000000
C	-1.208638	2.829234	0.000000
C	2.460777	0.679212	0.000000
C	2.460777	-0.679212	0.000000
C	1.234578	-1.427363	0.000000
C	0.000000	-0.712608	0.000000
C	-1.234578	-1.427363	0.000000
C	-1.208638	-2.829234	0.000000
C	0.000000	-3.518682	0.000000
C	1.208638	-2.829234	0.000000
H	-2.146471	3.376931	0.000000
H	0.000000	4.604109	0.000000
H	2.146471	3.376931	0.000000
H	3.399042	1.226480	0.000000
H	3.399042	-1.226480	0.000000
H	2.146471	-3.376931	0.000000
H	0.000000	-4.604109	0.000000
H	-2.146471	-3.376931	0.000000
C	-2.460777	-0.679212	0.000000
C	-2.460777	0.679212	0.000000
H	-3.399042	1.226480	0.000000
H	-3.399042	-1.226480	0.000000
