38
aligned
N	-1.031495	3.588774	0.028988
C	-0.927373	7.795143	-0.0
H	-0.919498	8.879920	-0.0
C	-0.044687	7.070323	-0.880903
H	0.648634	7.590336	-1.534709
C	-0.051408	5.678658	-0.855329
H	0.614235	5.121399	-1.506327
C	-0.952795	4.990310	-0.027685
C	-1.862087	5.727131	0.745280
H	-2.572778	5.185898	1.360168
C	-1.836180	7.116387	0.730296
H	-2.535764	7.673169	1.345729
C	0.028907	2.879290	0.001370
H	1.028634	3.336191	-0.007187
C	-0.000000	1.412805	0.0
C	1.207767	0.695601	-0.0
H	2.149900	1.236670	0.000279
C	-1.210268	0.703501	0.0
H	-2.139253	1.261262	0.000245
N	1.033995	-3.575071	-0.028645
C	0.929874	-7.781440	0.0
H	0.921998	-8.866217	0.0
C	0.047187	-7.056619	0.881246
H	-0.646134	-7.576633	1.535052
C	0.053908	-5.664955	0.855673
H	-0.611734	-5.107696	1.506671
C	0.955295	-4.976606	0.028028
C	1.864588	-5.713428	-0.744936
H	2.575278	-5.172195	-1.359824
C	1.838680	-7.102683	-0.729952
H	2.538264	-7.659466	-1.345385
C	-0.026407	-2.865587	-0.001027
H	-1.026134	-3.322487	0.007531
C	0.002500	-1.399102	-0.000000
C	-1.205267	-0.681897	0.0
H	-2.147400	-1.222967	0.000064
C	1.212768	-0.689798	0.000000
H	2.141754	-1.247559	0.000099
