9
*****
B      -2.790200    0.444900    0.000000
O      -2.864200    1.910600   -0.000000
B      -1.565000    2.593100   -0.000000
O      -0.258700    1.924300    0.000000
B      -0.317200    0.457900   -0.000000
O      -1.549600   -0.339000   -0.000000
H      -3.809800   -0.150900   -0.000000
H      -1.571200    3.774000   -0.000000
H       0.708500   -0.127100   -0.000000
