    68
 geometry
 C                     2.51560998     4.57807891     0.00000000
 C                    -2.51560998    -4.57807891     0.00000000
 C                    -2.51560998     4.57807891     0.00000000
 C                     2.51560998    -4.57807891     0.00000000
 C                     1.14290993     4.91973899     0.00000000
 C                    -1.14290993    -4.91973899     0.00000000
 C                    -1.14290993     4.91973899     0.00000000
 C                     1.14290993    -4.91973899     0.00000000
 C                     0.72064033     6.27431354     0.00000000
 C                    -0.72064033    -6.27431354     0.00000000
 C                    -0.72064033     6.27431354     0.00000000
 C                     0.72064033    -6.27431354     0.00000000
 N                     0.00000000     4.12514689     0.00000000
 N                     0.00000000    -4.12514689     0.00000000
 C                     1.64105488     7.31887032     0.00000000
 C                    -1.64105488    -7.31887032     0.00000000
 C                    -1.64105488     7.31887032     0.00000000
 C                     1.64105488    -7.31887032     0.00000000
 C                     2.99188780     7.00210274     0.00000000
 C                    -2.99188780    -7.00210274     0.00000000
 C                    -2.99188780     7.00210274     0.00000000
 C                     2.99188780    -7.00210274     0.00000000
 C                     3.40436392     5.67236007     0.00000000
 C                    -3.40436392    -5.67236007     0.00000000
 C                    -3.40436392     5.67236007     0.00000000
 C                     3.40436392    -5.67236007     0.00000000
 H                     4.46888744     5.47991521     0.00000000
 H                    -4.46888744    -5.47991521     0.00000000
 H                    -4.46888744     5.47991521     0.00000000
 H                     4.46888744    -5.47991521     0.00000000
 H                     3.73954193     7.78804531     0.00000000
 H                    -3.73954193    -7.78804531     0.00000000
 H                    -3.73954193     7.78804531     0.00000000
 H                     3.73954193    -7.78804531     0.00000000
 H                     1.30893380     8.35168818     0.00000000
 H                    -1.30893380    -8.35168818     0.00000000
 H                    -1.30893380     8.35168818     0.00000000
 H                     1.30893380    -8.35168818     0.00000000
 C                     3.08399396     3.22688612     0.00000000
 C                    -3.08399396    -3.22688612     0.00000000
 C                    -3.08399396     3.22688612     0.00000000
 C                     3.08399396    -3.22688612     0.00000000
 C                     4.42447304     2.89923137     0.00000000
 C                    -4.42447304    -2.89923137     0.00000000
 C                    -4.42447304     2.89923137     0.00000000
 C                     4.42447304    -2.89923137     0.00000000
 C                     4.69320454     1.52084302     0.00000000
 C                    -4.69320454    -1.52084302     0.00000000
 C                    -4.69320454     1.52084302     0.00000000
 C                     4.69320454    -1.52084302     0.00000000
 C                     3.56914691     0.72246044     0.00000000
 C                    -3.56914691    -0.72246044     0.00000000
 C                    -3.56914691     0.72246044     0.00000000
 C                     3.56914691    -0.72246044     0.00000000
 S                     2.14107926     1.73929529     0.00000000
 S                    -2.14107926    -1.73929529     0.00000000
 S                    -2.14107926     1.73929529     0.00000000
 S                     2.14107926    -1.73929529     0.00000000
 H                     0.00000000     3.11974911     0.00000000
 H                     0.00000000    -3.11974911     0.00000000
 H                     5.21689358     3.63432682     0.00000000
 H                    -5.21689358    -3.63432682     0.00000000
 H                    -5.21689358     3.63432682     0.00000000
 H                     5.21689358    -3.63432682     0.00000000
 H                     5.69867336     1.12073721     0.00000000
 H                    -5.69867336    -1.12073721     0.00000000
 H                    -5.69867336     1.12073721     0.00000000
 H                     5.69867336    -1.12073721     0.00000000
