    72
 geometry
 C                     8.13291501     0.00047850     0.00000000
 C                    -4.06687190     7.04307175     0.00000000
 C                    -4.06604311    -7.04355025     0.00000000
 C                     8.07096260    -1.38991339     0.00000000
 C                    -2.83178100     7.68461533     0.00000000
 C                    -5.23918160    -6.29470195     0.00000000
 C                     7.43407738     3.29611214     0.00000000
 C                    -6.57155553     4.79004379     0.00000000
 C                    -0.86252184    -8.08615593     0.00000000
 C                     6.84263340    -2.05148660     0.00000000
 C                    -1.64467719     6.95163765     0.00000000
 C                    -5.19795621    -4.90015105     0.00000000
 C                     5.42217322     4.64792249     0.00000000
 C                    -6.73630556     2.37177851     0.00000000
 C                     1.31413234    -7.01970099     0.00000000
 C                     6.81327157     4.54175004     0.00000000
 C                    -7.33990670     3.62959124     0.00000000
 C                     0.52663513    -8.17134128     0.00000000
 C                     5.61979281    -1.35262959     0.00000000
 C                    -1.63848481     5.54319813     0.00000000
 C                    -3.98130799    -4.19056854     0.00000000
 C                     3.18147536     3.66820386     0.00000000
 C                    -4.76749540     0.92113655     0.00000000
 C                     1.58602005    -4.58934041     0.00000000
 C                     5.69881596     0.05319429     0.00000000
 C                    -2.89547558     4.90872225     0.00000000
 C                    -2.80334037    -4.96191653     0.00000000
 C                     3.41917237    -2.78935502     0.00000000
 C                     0.70606613     4.35576765     0.00000000
 C                    -4.12523850    -1.56641262     0.00000000
 C                     4.58810561     3.51296380     0.00000000
 C                    -5.33636870     2.21693412     0.00000000
 C                     0.74826309    -5.72989792     0.00000000
 C                     5.23080866     2.26016313     0.00000000
 C                    -4.57276302     3.39993162     0.00000000
 C                    -0.65804564    -5.66009475     0.00000000
 C                     1.99425018     3.93569322     0.00000000
 C                    -4.40553541    -0.24077529     0.00000000
 C                     2.41128522    -3.69491793     0.00000000
 C                     4.39697789    -2.06495056     0.00000000
 C                    -0.41018931     4.84036983     0.00000000
 C                    -3.98678858    -2.77541927     0.00000000
 C                     6.94356487     0.73029490     0.00000000
 C                    -4.10423637     5.64815612     0.00000000
 C                    -2.83932850    -6.37845102     0.00000000
 C                     6.64323093     2.14647226     0.00000000
 C                    -5.18051497     4.67997062     0.00000000
 C                    -1.46271596    -6.82644288     0.00000000
 N                     4.68526282     0.99136278     0.00000000
 N                    -3.20117676     3.56187523     0.00000000
 N                    -1.48408606    -4.55323801     0.00000000
 H                     6.81212374    -3.13494663     0.00000000
 H                    -0.69111845     7.46694553     0.00000000
 H                    -6.12100529    -4.33199890     0.00000000
 H                     8.98580333    -1.97243548     0.00000000
 H                    -2.78472244     8.76815170     0.00000000
 H                    -6.20108089    -6.79571622     0.00000000
 H                     9.09232825     0.50754807     0.00000000
 H                    -4.98571364     7.62041321     0.00000000
 H                    -4.10661460    -8.12796127     0.00000000
 H                     3.69972793     0.78231813     0.00000000
 H                    -2.52737134     2.81289931     0.00000000
 H                    -1.17235659    -3.59521744     0.00000000
 H                     8.51668154     3.22190662     0.00000000
 H                    -7.04859376     5.76470926     0.00000000
 H                    -1.46808779    -8.98661588     0.00000000
 H                     7.41300352     5.44540285     0.00000000
 H                    -8.42235896     3.69714795     0.00000000
 H                     1.00935544    -9.14255079     0.00000000
 H                     4.95458131     5.62576541     0.00000000
 H                    -7.34934642     1.47791057     0.00000000
 H                     2.39476511    -7.10367598     0.00000000
