    54
 geometry
 C                     4.31091313     0.68814501     0.00000000
 C                    -4.31091313    -0.68814501     0.00000000
 C                    -4.31091313     0.68814501     0.00000000
 C                     4.31091313    -0.68814501     0.00000000
 N                     2.18204868     0.00000000     0.00000000
 N                    -2.18204868     0.00000000     0.00000000
 C                     2.96119410     1.12982907     0.00000000
 C                    -2.96119410    -1.12982907     0.00000000
 C                    -2.96119410     1.12982907     0.00000000
 C                     2.96119410    -1.12982907     0.00000000
 C                     2.46997314     2.46785701     0.00000000
 C                    -2.46997314    -2.46785701     0.00000000
 C                    -2.46997314     2.46785701     0.00000000
 C                     2.46997314    -2.46785701     0.00000000
 C                     1.09096026     2.82798662     0.00000000
 C                    -1.09096026    -2.82798662     0.00000000
 C                    -1.09096026     2.82798662     0.00000000
 C                     1.09096026    -2.82798662     0.00000000
 C                     0.72187275     4.22017181     0.00000000
 C                    -0.72187275    -4.22017181     0.00000000
 C                    -0.72187275     4.22017181     0.00000000
 C                     0.72187275    -4.22017181     0.00000000
 N                     0.00000000     2.00916076     0.00000000
 N                     0.00000000    -2.00916076     0.00000000
 H                     1.16831693     0.00000000     0.00000000
 H                    -1.16831693     0.00000000     0.00000000
 H                     5.18323548     1.32203227     0.00000000
 H                    -5.18323548    -1.32203227     0.00000000
 H                    -5.18323548     1.32203227     0.00000000
 H                     5.18323548    -1.32203227     0.00000000
 C                     1.66397611     5.22241355     0.00000000
 C                    -1.66397611    -5.22241355     0.00000000
 C                    -1.66397611     5.22241355     0.00000000
 C                     1.66397611    -5.22241355     0.00000000
 C                     3.02777768     4.86551850     0.00000000
 C                    -3.02777768    -4.86551850     0.00000000
 C                    -3.02777768     4.86551850     0.00000000
 C                     3.02777768    -4.86551850     0.00000000
 C                     3.40757328     3.54115333     0.00000000
 C                    -3.40757328    -3.54115333     0.00000000
 C                    -3.40757328     3.54115333     0.00000000
 C                     3.40757328    -3.54115333     0.00000000
 H                     4.46521118     3.30963572     0.00000000
 H                    -4.46521118    -3.30963572     0.00000000
 H                    -4.46521118     3.30963572     0.00000000
 H                     4.46521118    -3.30963572     0.00000000
 H                     3.78753349     5.63985011     0.00000000
 H                    -3.78753349    -5.63985011     0.00000000
 H                    -3.78753349     5.63985011     0.00000000
 H                     3.78753349    -5.63985011     0.00000000
 H                     1.37367089     6.26885045     0.00000000
 H                    -1.37367089    -6.26885045     0.00000000
 H                    -1.37367089     6.26885045     0.00000000
 H                     1.37367089    -6.26885045     0.00000000
