    31
 geometry
 C                    -2.47071954     3.35790870     0.00000000
 C                    -1.08242815     3.56624649     0.00000000
 C                    -0.26579903     2.43846109     0.00000000
 C                    -0.86909772     1.18127390     0.00000000
 C                    -2.24885863     0.97930312     0.00000000
 C                    -3.08263717     2.09443951     0.00000000
 B                     0.00000000    -0.00000000    -0.00000000
 C                    -0.58846435    -1.34329765     0.00000000
 C                    -1.97886974    -1.44941926     0.00000000
 O                    -2.77632928    -0.30871572     0.00000000
 C                     0.27632793    -2.43722026     0.00000000
 C                    -0.27251923    -3.71686186     0.00000000
 C                    -1.67267447    -3.81866024     0.00000000
 C                    -2.54724599    -2.72053352     0.00000000
 O                     1.12080899     2.55872954     0.00000000
 C                     1.97253069     1.45791714     0.00000000
 C                     1.45756207     0.16202375     0.00000000
 C                     2.24466876    -0.98904183     0.00000000
 O                     1.65552029    -2.25001383     0.00000000
 C                     3.35515641     1.62242235     0.00000000
 C                     4.14339401     0.46075153     0.00000000
 C                     3.62967413    -0.84571297     0.00000000
 H                    -0.66822210     4.56758086     0.00000000
 H                    -3.11400685     4.23217264     0.00000000
 H                    -4.16185916     1.99690013     0.00000000
 H                    -3.62153001    -2.86248774     0.00000000
 H                    -2.10816559    -4.81289536     0.00000000
 H                     0.35156334    -4.60272582     0.00000000
 H                     4.28975211    -1.70509312     0.00000000
 H                     5.22217244     0.58072272     0.00000000
 H                     3.81029582     2.60582569     0.00000000
