    54
 geometry
 C                     3.39610946    -4.61933567     0.00000000
 C                     2.09637233    -5.09771219     0.00000000
 C                     1.04243562    -4.16715809     0.00000000
 C                     1.32066131    -2.76825422     0.00000000
 C                     2.63090839    -2.26797784     0.00000000
 C                     3.65097073    -3.24272615     0.00000000
 C                    -0.36386663    -4.30935828     0.00000000
 C                    -0.91819332    -3.02527348     0.00000000
 N                     0.10870515    -2.11616529     0.00000000
 C                    -2.31291437    -2.64539164     0.00000000
 C                    -3.29934033    -3.67074262     0.00000000
 C                    -4.66460768    -3.40797635     0.00000000
 C                    -5.12529710    -2.09165806     0.00000000
 C                    -4.18533446    -1.05426260     0.00000000
 C                    -2.77165486    -1.31899748     0.00000000
 C                    -4.30169282     0.34490587     0.00000000
 C                    -2.96894625     0.85063750     0.00000000
 N                    -2.05052211    -0.14014808     0.00000000
 C                    -2.63090839     2.26797784     0.00000000
 C                    -1.32066131     2.76825422     0.00000000
 C                    -1.04243562     4.16715809     0.00000000
 C                    -2.09637233     5.09771219     0.00000000
 C                    -3.39610946     4.61933567     0.00000000
 C                    -3.65097073     3.24272615     0.00000000
 N                    -0.10870515     2.11616529     0.00000000
 C                     0.91819332     3.02527348     0.00000000
 C                     0.36386663     4.30935828     0.00000000
 C                     2.31291437     2.64539164     0.00000000
 C                     2.77165486     1.31899748     0.00000000
 C                     4.18533446     1.05426260     0.00000000
 C                     5.12529710     2.09165806     0.00000000
 C                     4.66460768     3.40797635     0.00000000
 C                     3.29934033     3.67074262     0.00000000
 C                     4.30169282    -0.34490587     0.00000000
 C                     2.96894625    -0.85063750     0.00000000
 N                     2.05052211     0.14014808     0.00000000
 H                    -0.02208496    -1.11285750     0.00000000
 H                     0.02208496     1.11285750     0.00000000
 H                     4.68374700    -2.91892527     0.00000000
 H                     4.23149745    -5.31124268     0.00000000
 H                     1.89197304    -6.16353214     0.00000000
 H                    -0.90706563    -5.24119447     0.00000000
 H                    -2.97569052    -4.70427854     0.00000000
 H                    -5.36788895    -4.23343709     0.00000000
 H                    -6.18985761    -1.87759902     0.00000000
 H                    -5.22275229     0.90811231     0.00000000
 H                    -4.68374700     2.91892527     0.00000000
 H                    -4.23149745     5.31124268     0.00000000
 H                    -1.89197304     6.16353214     0.00000000
 H                     0.90706563     5.24119447     0.00000000
 H                     2.97569052     4.70427854     0.00000000
 H                     5.36788895     4.23343709     0.00000000
 H                     6.18985761     1.87759902     0.00000000
 H                     5.22275229    -0.90811231     0.00000000
