56

C         14.39056        8.18053        7.36366
C         13.87699        6.91915        7.04769
C         12.48975        6.72614        7.02959
C         11.61243        7.81742        7.30658
C         12.10151        9.11585        7.56797
C         13.49888        9.24231        7.61753
C         11.67673        5.57676        6.80450
C         10.35452        5.95013        6.96144
N         10.32522        7.32200        7.22543
C          9.15146        5.12853        7.01309
C          9.27551        3.73128        7.10369
C          8.19035        2.86689        7.34487
C          6.91636        3.41132        7.54255
C          6.74028        4.79496        7.42746
C          7.84128        5.63517        7.12010
C          5.59514        5.63819        7.57223
C          5.97503        6.93910        7.33127
N          7.36877        6.95989        7.07721
C          5.15554        8.14120        7.43205
C          5.64462        9.43963        7.69344
C          4.76730       10.53091        7.97043
C          3.38006       10.33790        7.95232
C          2.86649        9.07652        7.63636
C          3.75817        8.01474        7.38249
N          6.93183        9.93505        7.77459
C          6.90253       11.30692        8.03858
C          5.58032       11.68029        8.19552
C          8.10559       12.12852        7.98693
C          9.41577       11.62188        7.87992
C         10.51677       12.46210        7.57255
C         10.34070       13.84574        7.45747
C          9.06670       14.39016        7.65515
C          7.98154       13.52577        7.89633
C         11.66192       11.61887        7.42779
C         11.28202       10.31795        7.66875
N          9.88829       10.29716        7.92281
H          9.53522        9.67848        8.65187
H          9.49174        7.79442        7.54986
H          7.72183        7.57857        6.34815
H          7.76531        9.46263        7.45016
H         13.91515       10.22495        7.83514
H         14.54844        6.07984        6.86511
H         12.03347        4.58052        6.56905
H         10.27507        3.30131        7.06455
H          6.06393        2.76502        7.75193
H          4.60899        5.31998        7.89242
H          3.34190        7.03211        7.16488
H          2.70861       11.17722        8.13491
H          5.22358       12.67653        8.43097
H          6.98199       13.95574        7.93547
H         11.19312       14.49204        7.24808
H         12.64806       11.93707        7.10760
H          1.84680        8.92462        7.58956
H          8.92436       15.41184        7.62457
H         15.41025        8.33243        7.41046
H          8.33268        1.84521        7.37545
