56
aligned
C	5.648762	-1.310769	0.000000
C	4.967944	-2.517168	0.000000
C	3.566949	-2.492734	0.000000
C	2.882354	-1.243516	0.000000
C	3.562196	-0.000000	0.000000
C	4.962431	-0.091719	0.000000
C	2.581623	-3.527210	0.000000
C	1.333477	-2.943751	0.000000
N	1.536448	-1.564385	0.000000
C	-0.000000	-3.562196	0.000000
C	-0.091719	-4.962431	0.000000
C	-1.310769	-5.648762	0.000000
C	-2.517168	-4.967944	0.000000
C	-2.492734	-3.566949	0.000000
C	-1.243516	-2.882354	0.000000
C	-3.527210	-2.581623	0.000000
C	-2.943751	-1.333477	0.000000
N	-1.564385	-1.536448	0.000000
C	-3.562196	0.000000	0.000000
C	-2.882354	1.243516	0.000000
C	-3.566949	2.492734	0.000000
C	-4.967944	2.517168	0.000000
C	-5.648762	1.310769	0.000000
C	-4.962431	0.091719	0.000000
N	-1.536448	1.564385	0.000000
C	-1.333477	2.943751	0.000000
C	-2.581623	3.527210	0.000000
C	0.000000	3.562196	0.000000
C	1.243516	2.882354	0.000000
C	2.492734	3.566949	0.000000
C	2.517168	4.967944	0.000000
C	1.310769	5.648762	0.000000
C	0.091719	4.962431	0.000000
C	3.527210	2.581623	0.000000
C	2.943751	1.333477	0.000000
N	1.564385	1.536448	0.000000
H	0.911616	0.787595	0.000000
H	0.787595	-0.911616	0.000000
H	-0.911616	-0.787595	0.000000
H	-0.787595	0.911616	0.000000
H	5.542516	0.822967	0.000000
H	6.733672	-1.300816	0.000000
H	5.502779	-3.461260	0.000000
H	2.788757	-4.585820	0.000000
H	0.822967	-5.542516	0.000000
H	-1.300816	-6.733672	0.000000
H	-3.461260	-5.502779	0.000000
H	-4.585820	-2.788757	0.000000
H	-5.542516	-0.822967	0.000000
H	-6.733672	1.300816	0.000000
H	-5.502779	3.461260	0.000000
H	-2.788757	4.585820	0.000000
H	-0.822967	5.542516	0.000000
H	1.300816	6.733672	0.000000
H	3.461260	5.502779	0.000000
H	4.585820	2.788757	0.000000
