42
*****
C       0.495900   -1.436400   -1.904000
C       0.267300   -0.055100   -2.026500
C       0.021200    0.555200   -3.268300
C       0.008500   -0.263200   -4.410900
C       0.230100   -1.649500   -4.341400
C       0.471400   -2.212000   -3.076000
C      -0.216700    2.008100   -3.369200
C       0.453600    2.790300   -4.325800
C       0.227400    4.166400   -4.423500
C      -0.673000    4.787800   -3.562800
C      -1.347700    4.034400   -2.606300
C      -1.122000    2.658000   -2.512300
C       0.753800   -2.052400   -0.587700
C       1.681100   -1.492300    0.308300
C       1.925800   -2.074200    1.555600
C       1.248700   -3.231300    1.930100
C       0.326800   -3.805300    1.059300
C       0.081400   -3.219900   -0.186300
C       0.209700   -2.487000   -5.557100
C      -0.818100   -2.364000   -6.508500
C      -0.837700   -3.155400   -7.660900
C       0.170200   -4.089500   -7.882500
C       1.197600   -4.231100   -6.954200
C       1.217100   -3.436000   -5.804400
H       2.234600   -0.596200    0.034000
H       2.648000   -1.623400    2.231300
H       1.439300   -3.685100    2.899000
H      -0.205700   -4.707800    1.348000
H      -0.654700   -3.680600   -0.842300
H       2.039900   -3.556600   -5.102300
H       1.987800   -4.957800   -7.123500
H       0.154900   -4.706100   -8.777200
H      -1.643100   -3.042400   -8.381900
H      -1.626400   -1.652100   -6.352500
H       1.173100    2.331200   -5.001200
H       0.757900    4.750800   -5.170700
H      -0.848700    5.857600   -3.637300
H      -2.053100    4.514800   -1.933300
H      -1.672900    2.089400   -1.765500
H       0.281300    0.563000   -1.129500
H       0.645400   -3.284800   -3.000800
H      -0.179700    0.192500   -5.382400
